Version 4
SHEET 1 880 680
WIRE 192 -16 -336 -16
WIRE -336 96 -336 -16
WIRE 192 96 192 64
WIRE 240 96 192 96
WIRE 352 96 304 96
WIRE 192 112 192 96
WIRE 144 176 -32 176
WIRE 352 192 352 96
WIRE -336 352 -336 176
WIRE -32 352 -32 336
WIRE 192 352 192 288
WIRE 352 352 352 272
FLAG 192 352 0
FLAG -32 352 0
FLAG -336 352 0
FLAG 352 352 0
SYMBOL njf 144 112 R0
SYMATTR InstName J1
SYMBOL res -48 160 R0
SYMATTR InstName R1
SYMATTR Value 1000
SYMBOL res 176 -32 R0
SYMATTR InstName R2
SYMATTR Value 1k
SYMBOL res 176 192 R0
SYMATTR InstName R3
SYMATTR Value 10k
SYMBOL voltage -336 80 R0
WINDOW 123 0 0 Left 0
WINDOW 39 0 0 Left 0
SYMATTR InstName V1
SYMATTR Value SINE(0 1 40k 0 0 0 0)
SYMBOL voltage -32 240 R0
WINDOW 123 0 0 Left 0
WINDOW 39 0 0 Left 0
SYMATTR InstName V2
SYMATTR Value PULSE(0 5 0 0 0 100u 200u)
SYMBOL cap 304 80 R90
WINDOW 0 0 32 VBottom 2
WINDOW 3 32 32 VTop 2
SYMATTR InstName C1
SYMATTR Value 0.1µ
SYMBOL res 336 176 R0
SYMATTR InstName R4
SYMATTR Value 10K
TEXT -344 400 Left 2 !.tran 1ms
TEXT -40 160 Left 2 ;INPUT
TEXT 336 80 Left 2 ;OUTPUT
TEXT 328 -24 Left 2 ;By Shreays R\n      Praphul Gowda\n      Karthik K Bhat
