Version 4
SHEET 1 1092 680
WIRE -144 48 -368 48
WIRE 96 48 -144 48
WIRE 384 48 96 48
WIRE 96 64 96 48
WIRE 384 64 384 48
WIRE -144 80 -144 48
WIRE 32 112 -48 112
WIRE 528 112 448 112
WIRE 528 128 528 112
WIRE -144 176 -144 160
WIRE -96 176 -144 176
WIRE -144 192 -144 176
WIRE -96 208 -96 176
WIRE -48 208 -48 192
WIRE -48 208 -96 208
WIRE 96 208 96 160
WIRE 208 208 96 208
WIRE 384 208 384 160
WIRE 384 208 272 208
WIRE 624 208 528 208
WIRE 688 208 624 208
WIRE -368 224 -368 48
WIRE -48 224 -48 208
WIRE 528 224 528 208
WIRE -208 240 -256 240
WIRE 688 240 688 208
WIRE 96 256 96 208
WIRE 384 256 384 208
WIRE 32 304 -48 304
WIRE 528 304 448 304
WIRE -144 368 -144 288
WIRE 96 368 96 352
WIRE 96 368 -144 368
WIRE 272 368 96 368
WIRE 384 368 384 352
WIRE 384 368 272 368
WIRE -368 384 -368 304
WIRE 272 384 272 368
WIRE 688 384 688 320
WIRE -256 448 -256 240
WIRE 624 448 624 208
WIRE 624 448 -256 448
FLAG -368 384 0
FLAG 272 384 0
FLAG 688 384 0
SYMBOL npn -208 192 R0
SYMATTR InstName Q3
SYMATTR Value 2N3904
SYMBOL res -64 96 R0
SYMATTR InstName R1
SYMATTR Value 1200
SYMBOL res -64 208 R0
SYMATTR InstName R2
SYMATTR Value 1200
SYMBOL res -160 64 R0
SYMATTR InstName R3
SYMATTR Value 500
SYMBOL res 512 112 R0
SYMATTR InstName R4
SYMATTR Value 1200
SYMBOL res 512 208 R0
SYMATTR InstName R5
SYMATTR Value 1200
SYMBOL voltage 688 224 R0
WINDOW 123 0 0 Left 0
WINDOW 39 0 0 Left 0
SYMATTR InstName V2
SYMATTR Value PULSE(0 5 0 0 0 26u 52u)
SYMBOL npn 32 64 R0
SYMATTR InstName Q1
SYMATTR Value 2N3904
SYMBOL npn 448 64 M0
SYMATTR InstName Q2
SYMATTR Value 2N3904
SYMBOL pnp 32 352 M180
SYMATTR InstName Q4
SYMATTR Value 2N3906
SYMBOL pnp 448 352 R180
SYMATTR InstName Q5
SYMATTR Value 2N3906
SYMBOL voltage -368 208 R0
WINDOW 123 0 0 Left 0
WINDOW 39 0 0 Left 0
SYMATTR InstName V1
SYMATTR Value 5
SYMBOL Misc\\xtal 272 192 R90
WINDOW 0 0 32 VBottom 2
WINDOW 3 32 32 VTop 2
SYMATTR InstName Transducer
SYMATTR Value 2.3n
TEXT -248 480 Left 2 !.tran 0.01s
TEXT 688 56 Left 2 ;By Shreyas R\n     Karthik K Bhat\n     Praphul Gowda
TEXT 704 208 Left 2 ;INPUT
