Version 4
SHEET 1 880 680
WIRE -208 0 -208 -64
WIRE 48 32 48 -64
WIRE 64 32 48 32
WIRE 160 32 144 32
WIRE 176 32 160 32
WIRE 272 32 256 32
WIRE 336 32 336 -64
WIRE 352 32 336 32
WIRE 448 32 432 32
WIRE 272 48 272 32
WIRE -336 80 -336 -64
WIRE 336 112 336 32
WIRE 48 128 48 32
WIRE 160 128 160 32
WIRE 304 128 160 128
WIRE -208 144 -208 80
WIRE 16 144 -16 144
WIRE 512 144 512 32
WIRE 512 144 368 144
WIRE 544 144 512 144
WIRE -16 160 -16 144
WIRE 304 160 80 160
WIRE 16 176 0 176
WIRE -208 192 -208 144
WIRE -128 192 -208 192
WIRE 0 192 0 176
WIRE 0 192 -64 192
WIRE -208 208 -208 192
WIRE -336 304 -336 160
WIRE -208 304 -208 288
WIRE 48 304 48 192
WIRE 336 304 336 176
FLAG 48 -64 COM
FLAG 336 -64 COM
FLAG -208 -64 COM
FLAG -208 304 0
FLAG 48 304 0
FLAG 336 304 0
FLAG -16 160 0
FLAG 272 48 0
FLAG 544 144 Output
FLAG -336 -64 COM
FLAG -336 304 0
FLAG -208 144 Transducer
SYMBOL cap -64 176 R90
WINDOW 0 0 32 VBottom 2
WINDOW 3 32 32 VTop 2
SYMATTR InstName C1
SYMATTR Value 100n
SYMBOL res -224 192 R0
SYMATTR InstName R1
SYMATTR Value 10k
SYMBOL res 160 16 R90
WINDOW 0 0 56 VBottom 2
WINDOW 3 28 56 VBottom 2
SYMATTR InstName R2
SYMATTR Value 5k
SYMBOL res 272 16 R90
WINDOW 0 0 56 VBottom 2
WINDOW 3 28 56 VBottom 2
SYMATTR InstName R3
SYMATTR Value 5k
SYMBOL res 448 16 R90
WINDOW 0 0 56 VBottom 2
WINDOW 3 32 56 VTop 2
SYMATTR InstName R4
SYMATTR Value 220
SYMBOL diode 448 48 R270
WINDOW 0 72 32 VTop 2
WINDOW 3 0 32 VBottom 2
SYMATTR InstName D1
SYMATTR Value 1N914
SYMATTR Description Light Emitting Diode
SYMATTR Type led
SYMBOL voltage -336 64 R0
WINDOW 3 24 44 Left 2
WINDOW 123 0 0 Left 0
WINDOW 39 0 0 Left 0
SYMATTR InstName V1
SYMATTR Value 5V
SYMBOL current -208 0 R0
WINDOW 123 0 0 Left 0
WINDOW 39 0 0 Left 0
SYMATTR InstName Transducer
SYMATTR Value SINE(0 0.3m 40k)
SYMBOL Opamps\\UniversalOpamp2 48 160 R0
SYMATTR InstName U1
SYMBOL Opamps\\UniversalOpamp2 336 144 R0
SYMATTR InstName U2
TEXT -370 328 Left 2 !.tran 125u
