Version 4
SHEET 1 880 680
WIRE 352 -16 224 -16
WIRE 640 -16 352 -16
WIRE 224 80 224 64
WIRE 224 80 160 80
WIRE 352 80 352 48
WIRE 352 80 224 80
WIRE 640 96 640 -16
WIRE 224 112 224 80
WIRE -304 160 -368 160
WIRE -160 160 -224 160
WIRE -112 160 -160 160
WIRE -16 160 -48 160
WIRE 80 160 80 80
WIRE 80 160 64 160
WIRE 160 160 80 160
WIRE -160 208 -160 160
WIRE -368 224 -368 160
WIRE 224 272 224 208
WIRE -368 416 -368 304
WIRE -160 416 -160 272
WIRE 224 416 224 352
WIRE 640 416 640 176
FLAG -368 416 0
FLAG 224 416 0
FLAG -160 416 0
FLAG 640 416 0
SYMBOL npn 160 112 R0
SYMATTR InstName Q1
SYMATTR Value BC547C
SYMBOL res 80 144 R90
WINDOW 0 0 56 VBottom 2
WINDOW 3 32 56 VTop 2
SYMATTR InstName R1
SYMATTR Value 100k
SYMBOL res 176 64 R90
WINDOW 0 0 56 VBottom 2
WINDOW 3 32 56 VTop 2
SYMATTR InstName R2
SYMATTR Value 470k
SYMBOL res 240 80 R180
WINDOW 0 36 76 Left 2
WINDOW 3 36 40 Left 2
SYMATTR InstName R3
SYMATTR Value 1k
SYMBOL res -208 144 R90
WINDOW 0 0 56 VBottom 2
WINDOW 3 32 56 VTop 2
SYMATTR InstName R4
SYMATTR Value 1k
SYMBOL cap -176 208 R0
SYMATTR InstName C1
SYMATTR Value 0.1µ
SYMBOL cap -48 144 R90
WINDOW 0 0 32 VBottom 2
WINDOW 3 32 32 VTop 2
SYMATTR InstName C2
SYMATTR Value 0.1µ
SYMBOL Misc\\xtal 336 -16 R0
SYMATTR InstName C3
SYMATTR Value 1µ
SYMATTR SpiceLine V=16 Irms=0 Rser=11 Lser=0 mfg="AVX" pn="TAJA105K016" type="Tantalum"
SYMBOL voltage 640 80 R0
WINDOW 123 0 0 Left 0
WINDOW 39 0 0 Left 0
SYMATTR InstName V1
SYMATTR Value 5V
SYMBOL voltage 224 256 R0
WINDOW 123 0 0 Left 0
WINDOW 39 0 0 Left 0
SYMATTR InstName V2
SYMATTR Value PULSE(0 5 0 0 0 12.5u 25u)
SYMBOL voltage -368 208 R0
WINDOW 123 0 0 Left 0
WINDOW 39 0 0 Left 0
SYMATTR InstName V3
SYMATTR Value SINE(2.5 2.5 36800 0 0)
TEXT -402 440 Left 2 !.tran 0 0.005 0.003
